REMARK  6 active torsions:
REMARK  status: ('A' for Active; 'I' for Inactive)
REMARK    1  A    between atoms: C1_4326  and  O25_4350 
REMARK    2  A    between atoms: C2_4327  and  O27_4352 
REMARK    3  A    between atoms: C8_4333  and  C10_4335 
REMARK    4  A    between atoms: C10_4335  and  C11_4336 
REMARK    5  A    between atoms: N14_4339  and  C17_4342 
REMARK    6  A    between atoms: C17_4342  and  C18_4343 
ROOT
HETATM    1  C1  E20 A2001       1.057  60.056  71.240  1.00 26.85     0.113 A 
HETATM    2  C2  E20 A2001       0.188  61.079  71.628  1.00 22.90     0.098 A 
HETATM    3  C3  E20 A2001       0.347  62.415  71.171  1.00 21.66     0.075 A 
HETATM    4  C4  E20 A2001       1.447  62.720  70.270  1.00 15.86    -0.035 A 
HETATM    5  C5  E20 A2001       2.306  61.665  69.881  1.00 18.21     0.029 A 
HETATM    6  C6  E20 A2001       2.140  60.371  70.362  1.00 24.60     0.028 A 
HETATM    7  C7  E20 A2001       3.365  62.094  69.016  1.00 25.58     0.172 A 
HETATM    8  C8  E20 A2001       3.086  63.590  68.740  1.00 21.53     0.066 A 
HETATM    9  C9  E20 A2001       1.839  63.992  69.558  1.00 17.21     0.030 A 
HETATM   10  O24 E20 A2001       4.325  61.375  68.615  1.00 28.32    -0.291 OA
ENDROOT
BRANCH   1  11
HETATM   11  O25 E20 A2001       0.890  58.762  71.644  1.00 29.40    -0.327 OA
HETATM   12  C26 E20 A2001       1.842  57.647  71.265  1.00 21.15     0.181 C 
ENDBRANCH   1  11
BRANCH   2  13
HETATM   13  O27 E20 A2001      -0.925  61.025  72.321  1.00 22.73    -0.330 OA
HETATM   14  C28 E20 A2001      -1.434  59.862  72.928  1.00 31.57     0.181 C 
ENDBRANCH   2  13
BRANCH   8  15
HETATM   15  C10 E20 A2001       4.105  64.576  69.245  1.00 18.02     0.008 C 
BRANCH  15  16
HETATM   16  C11 E20 A2001       4.307  65.848  68.533  1.00 18.84     0.004 C 
HETATM   17  C12 E20 A2001       5.006  65.637  67.195  1.00 15.13     0.035 C 
HETATM   18  C13 E20 A2001       5.161  66.919  66.425  1.00 19.67     0.251 C 
HETATM   19  N14 E20 A2001       3.854  67.635  66.237  1.00 18.93     0.141 N 
HETATM   20  C15 E20 A2001       3.177  67.997  67.535  1.00 13.92     0.251 C 
HETATM   21  C16 E20 A2001       3.004  66.708  68.390  1.00 13.21     0.035 C 
BRANCH  19  22
HETATM   22  C17 E20 A2001       3.743  68.943  65.483  1.00 20.75     0.277 C 
BRANCH  22  23
HETATM   23  C18 E20 A2001       3.992  68.847  63.988  1.00 17.17     0.011 A 
HETATM   24  C19 E20 A2001       2.864  68.675  63.126  1.00 18.68    -0.002 A 
HETATM   25  C20 E20 A2001       3.052  68.432  61.723  1.00 21.92    -0.000 A 
HETATM   26  C21 E20 A2001       4.345  68.390  61.195  1.00 14.62     0.000 A 
HETATM   27  C22 E20 A2001       5.479  68.598  62.046  1.00 19.28    -0.000 A 
HETATM   28  C23 E20 A2001       5.310  68.869  63.440  1.00 13.50    -0.002 A 
ENDBRANCH  22  23
ENDBRANCH  19  22
ENDBRANCH  15  16
ENDBRANCH   8  15
TORSDOF 6
